*KEYWORD
*TITLE
LS-DYNA Export from Mesh Class
Created by Mesh::exportToLSDYNA()
$# END OF HEADER
*NODE
$#   nid               x               y               z      tc      rc
       1-0.0649999976158-0.0099999997765 0.0000000000000     0     0
       2-0.0649999976158-0.0099999997765 0.0040000001900     0     0
       3-0.0399999991059-0.0099999997765 0.0040000001900     0     0
       4-0.0399999991059-0.0099999997765 0.0000000000000     0     0
       5-0.0399999991059 0.0099999997765 0.0040000001900     0     0
       6-0.0399999991059 0.0099999997765 0.0000000000000     0     0
       7-0.0649999976158 0.0099999997765 0.0000000000000     0     0
       8-0.0649999976158 0.0099999997765 0.0040000001900     0     0
       9-0.0250000003725-0.0062500000931 0.0040000001900     0     0
      10-0.0250000003725-0.0062500000931 0.0000000000000     0     0
      11-0.0250000003725 0.0062500000931 0.0040000001900     0     0
      12-0.0250000003725 0.0062500000931 0.0000000000000     0     0
      13 0.0250000003725-0.0062500000931 0.0040000001900     0     0
      14 0.0250000003725-0.0062500000931 0.0000000000000     0     0
      15 0.0250000003725 0.0062500000931 0.0040000001900     0     0
      16 0.0250000003725 0.0062500000931 0.0000000000000     0     0
      17 0.0399999991059-0.0099999997765 0.0040000001900     0     0
      18 0.0399999991059-0.0099999997765 0.0000000000000     0     0
      19 0.0399999991059 0.0099999997765 0.0040000001900     0     0
      20 0.0399999991059 0.0099999997765 0.0000000000000     0     0
$ ... 925 like lines cut
$# END OF NODES
*ELEMENT_SOLID
$#   eid     pid      n1      n2      n3      n4      n5      n6      n7      n8
       1       1     309     318     317     380       0       0       0       0
       2       1     380     317     309     379       0       0       0       0
       3       1     309     371     380     379       0       0       0       0
       4       1     319     309     338     381       0       0       0       0
       5       1     400     381     309     371       0       0       0       0
       6       1     381     309     338     400       0       0       0       0
       7       1     429     315     367     415       0       0       0       0
       8       1     407     323     344     385       0       0       0       0
       9       1     344     406     407     385       0       0       0       0
      10       1     360     307     422     410       0       0       0       0
      11       1     429     367     311     415       0       0       0       0
      12       1     367     315     429     401       0       0       0       0
      13       1     360     307     413     422       0       0       0       0
      14       1     353     367     315     415       0       0       0       0
      15       1     367     429     418     401       0       0       0       0
      16       1     338     381     339     319       0       0       0       0
      17       1     318     321     341     383       0       0       0       0
      18       1     339     344     319     406       0       0       0       0
      19       1     367     353     311     415       0       0       0       0
      20       1     380     318     341     383       0       0       0       0
$ ... 2604 like lines cut
$# END OF ELEMENTS
*PART
$#     pid       secid       mid     eosid      hgid      grav    adpopt      tmid
       1       1       1       0       0       0       0       0
$# END OF PART
*MAT_ELASTIC
$#     mid        ro         e        pr        da        db         k
       17.850000e+032.100000e+113.000000e-010.000000e+000.000000e+000.000000e+00
$# END OF MATERIAL
*BOUNDARY_SPC_SET
$#      id       cid      dofx      dofy      dofz     dofrx     dofry     dofrz
       1       0       1       1       1       0       0       0
$# END OF BOUNDARY CONDITIONS
*END
