$ WeldFormGUI NASTRAN export
BEGIN BULK
MAT1           1  2.1+11           3.0-1
GRID           1          -6.5-2  -1.0-2      0.
GRID           2          -6.5-2  -1.0-2   4.0-3
GRID           3          -4.0-2  -1.0-2   4.0-3
GRID           4          -4.0-2  -1.0-2      0.
GRID           5          -4.0-2   1.0-2   4.0-3
GRID           6          -4.0-2   1.0-2      0.
GRID           7          -6.5-2   1.0-2      0.
GRID           8          -6.5-2   1.0-2   4.0-3
GRID           9          -2.5-2 -6.25-3   4.0-3
GRID          10          -2.5-2 -6.25-3      0.
GRID          11          -2.5-2  6.25-3   4.0-3
GRID          12          -2.5-2  6.25-3      0.
GRID          13           2.5-2 -6.25-3   4.0-3
GRID          14           2.5-2 -6.25-3      0.
GRID          15           2.5-2  6.25-3   4.0-3
GRID          16           2.5-2  6.25-3      0.
GRID          17           4.0-2  -1.0-2   4.0-3
GRID          18           4.0-2  -1.0-2      0.
GRID          19           4.0-2   1.0-2   4.0-3
GRID          20           4.0-2   1.0-2      0.
$ ... 925 like lines cut
CTETRA         1       5     308     317     316     379
CTETRA         2       5     379     316     308     378
CTETRA         3       5     308     370     379     378
CTETRA         4       5     318     308     337     380
CTETRA         5       5     399     380     308     370
CTETRA         6       5     380     308     337     399
CTETRA         7       5     428     314     366     414
CTETRA         8       5     406     322     343     384
CTETRA         9       5     343     405     406     384
CTETRA        10       5     359     306     421     409
CTETRA        11       5     428     366     310     414
CTETRA        12       5     366     314     428     400
CTETRA        13       5     359     306     412     421
CTETRA        14       5     352     366     314     414
CTETRA        15       5     366     428     417     400
CTETRA        16       5     337     380     338     318
CTETRA        17       5     317     320     340     382
CTETRA        18       5     338     343     318     405
CTETRA        19       5     366     352     310     414
CTETRA        20       5     379     317     340     382
$ ... 2604 like lines cut
ENDDATA
