$ WeldFormGUI NASTRAN export
BEGIN BULK
MAT1           1  2.1+11           3.0-1
GRID           1          1.27-2 -3.1-18   3.0-2
GRID           2          1.27-2 -3.1-18      0.
GRID           3         1.236-2 2.929-3   3.0-2
GRID           4         1.135-2   5.7-3   3.0-2
GRID           5         9.729-3 8.163-3   3.0-2
GRID           6         7.584-3 1.019-2   3.0-2
GRID           7          5.03-3 1.166-2   3.0-2
GRID           8         2.205-3 1.251-2   3.0-2
GRID           9          -7.4-4 1.268-2   3.0-2
GRID          10         -3.64-3 1.217-2   3.0-2
GRID          11         -6.35-3   1.1-2   3.0-2
GRID          12         -8.71-3 9.238-3   3.0-2
GRID          13        -1.061-2 6.979-3   3.0-2
GRID          14        -1.193-2 4.344-3   3.0-2
GRID          15        -1.261-2 1.474-3   3.0-2
GRID          16        -1.261-2 -1.47-3   3.0-2
GRID          17        -1.193-2 -4.34-3   3.0-2
GRID          18        -1.061-2 -6.97-3   3.0-2
GRID          19         -8.71-3 -9.23-3   3.0-2
GRID          20         -6.35-3-1.099-2   3.0-2
$ ... 717 like lines cut
CTETRA         1       5     482     520     516     566
CTETRA         2       5     501     571     655     707
CTETRA         3       5     498     655     571     707
CTETRA         4       5     481     560     552     658
CTETRA         5       5     568     581     507     624
CTETRA         6       5     507     568     500     581
CTETRA         7       5     536     504     579     679
CTETRA         8       5     483     513     508     539
CTETRA         9       5      34     555     527     631
CTETRA        10       5     117     118     116     513
CTETRA        11       5     498     571     648     707
CTETRA        12       5     481     552     539     658
CTETRA        13       5     492     610     556     642
CTETRA        14       5     116     513     118     556
CTETRA        15       5      31     511     553     685
CTETRA        16       5     488     518     512     560
CTETRA        17       5      31      32     511     685
CTETRA        18       5     508     513     483     615
CTETRA        19       5     410     567     509     573
CTETRA        20       5     110     508     229     606
$ ... 2922 like lines cut
ENDDATA
