$ WeldFormGUI NASTRAN export
BEGIN BULK
MAT1           1  2.1+11           3.0-1
PSHELL         1       1   1.0+0
GRID           1         4.125+0-1.342+2      0.
GRID           2           4.9+0-1.343+2      0.
GRID           3           6.1+0-1.343+2      0.
GRID           4         7.002+0-1.342+2      0.
GRID           5           1.0+0-1.333+2      0.
GRID           6           2.1+0-1.335+2      0.
GRID           7           3.0+0-1.332+2      0.
GRID           8           3.9+0-1.334+2      0.
GRID           9           5.0+0-1.333+2      0.
GRID          10           6.0+0-1.333+2      0.
GRID          11         7.183+0-1.334+2      0.
GRID          12           1.0+0-1.323+2      0.
GRID          13           2.0+0-1.323+2      0.
GRID          14           3.0+0-1.323+2      0.
GRID          15           4.0+0-1.323+2      0.
GRID          16           5.0+0-1.323+2      0.
GRID          17           6.0+0-1.323+2      0.
GRID          18         7.185+0-1.322+2      0.
GRID          19           1.0+0-1.313+2      0.
GRID          20           2.0+0-1.313+2      0.
$ ... 2100 like lines cut
CQUAD4         1       1       1       2       9       8
CQUAD4         2       1       2       3      10       9
CQUAD4         3       1       3       4      11      10
CQUAD4         4       1       5       6      13      12
CQUAD4         5       1       6       7      14      13
CQUAD4         6       1       7       8      15      14
CQUAD4         7       1       8       9      16      15
CQUAD4         8       1       9      10      17      16
CQUAD4         9       1      10      11      18      17
CQUAD4        10       1      12      13      20      19
CQUAD4        11       1      13      14      21      20
CQUAD4        12       1      14      15      22      21
CQUAD4        13       1      15      16      23      22
CQUAD4        14       1      16      17      24      23
CQUAD4        15       1      17      18      25      24
CQUAD4        16       1      19      20      27      26
CQUAD4        17       1      20      21      28      27
CQUAD4        18       1      21      22      29      28
CQUAD4        19       1      22      23      30      29
CQUAD4        20       1      23      24      31      30
$ ... 1920 like lines cut
ENDDATA
