$ WeldFormGUI NASTRAN export
BEGIN BULK
MAT1           1  2.1+11           3.0-1
PSHELL         1       1   1.0+0
GRID           1          -2.5-2  -2.5-2   3.0-2
GRID           2           2.5-2  -2.5-2   3.0-2
GRID           3           2.5-2   2.5-2   3.0-2
GRID           4          -2.5-2   2.5-2   3.0-2
GRID           5          -2.0-2  -2.5-2   3.0-2
GRID           6          -1.5-2  -2.5-2   3.0-2
GRID           7          -1.0-2  -2.5-2   3.0-2
GRID           8          -5.0-3  -2.5-2   3.0-2
GRID           9        3.469-17  -2.5-2   3.0-2
GRID          10           5.0-3  -2.5-2   3.0-2
GRID          11           1.0-2  -2.5-2   3.0-2
GRID          12           1.5-2  -2.5-2   3.0-2
GRID          13           2.0-2  -2.5-2   3.0-2
GRID          14           2.5-2  -2.0-2   3.0-2
GRID          15           2.5-2  -1.5-2   3.0-2
GRID          16           2.5-2  -1.0-2   3.0-2
GRID          17           2.5-2  -5.0-3   3.0-2
GRID          18           2.5-23.469-17   3.0-2
GRID          19           2.5-2   5.0-3   3.0-2
GRID          20           2.5-2   1.0-2   3.0-2
$ ... 125 like lines cut
CTRIA3         1       1      72     100      97
CTRIA3         2       1      97      99      72
CTRIA3         3       1      57     101      58
CTRIA3         4       1      96     100      50
CTRIA3         5       1      46      86      83
CTRIA3         6       1     116     128      76
CTRIA3         7       1      97     100      96
CTRIA3         8       1      53     101      57
CTRIA3         9       1     100     101      50
CTRIA3        10       1      86     125      83
CTRIA3        11       1      76     130     116
CTRIA3        12       1     101     135      58
CTRIA3        13       1     104     128     116
CTRIA3        14       1     114     124      92
CTRIA3        15       1      83     127      46
CTRIA3        16       1      92     143     114
CTRIA3        17       1      55     122      88
CTRIA3        18       1      56     119     110
CTRIA3        19       1     118     123      95
CTRIA3        20       1     121     125      54
$ ... 228 like lines cut
ENDDATA
