$ WeldFormGUI NASTRAN export
BEGIN BULK
MAT1           1  2.1+11           3.0-1
PSHELL         1       1   1.0+0
GRID           1              0.      0.   3.0-2
GRID           2           5.0-2      0.   3.0-2
GRID           3           5.0-2   5.0-2   3.0-2
GRID           4              0.   5.0-2   3.0-2
GRID           5           5.0-3      0.   3.0-2
GRID           6           1.0-2      0.   3.0-2
GRID           7           1.5-2      0.   3.0-2
GRID           8           2.0-2      0.   3.0-2
GRID           9           2.5-2      0.   3.0-2
GRID          10           3.0-2      0.   3.0-2
GRID          11           3.5-2      0.   3.0-2
GRID          12           4.0-2      0.   3.0-2
GRID          13           4.5-2      0.   3.0-2
GRID          14           5.0-2   5.0-3   3.0-2
GRID          15           5.0-2   1.0-2   3.0-2
GRID          16           5.0-2   1.5-2   3.0-2
GRID          17           5.0-2   2.0-2   3.0-2
GRID          18           5.0-2   2.5-2   3.0-2
GRID          19           5.0-2   3.0-2   3.0-2
GRID          20           5.0-2   3.5-2   3.0-2
$ ... 126 like lines cut
CTRIA3         1       1      72     105     102
CTRIA3         2       1     102     104      72
CTRIA3         3       1     101     105      50
CTRIA3         4       1     105     140      50
CTRIA3         5       1      47     106      83
CTRIA3         6       1      89     128      76
CTRIA3         7       1     102     105     101
CTRIA3         8       1     106     125      83
CTRIA3         9       1      76     130      89
CTRIA3        10       1      87     128      89
CTRIA3        11       1      83     127      47
CTRIA3        12       1      55     120      93
CTRIA3        13       1      53     122      90
CTRIA3        14       1      56     119      98
CTRIA3        15       1     120     140      93
CTRIA3        16       1     129     130      76
CTRIA3        17       1     121     125      54
CTRIA3        18       1     104     118      72
CTRIA3        19       1      83     125      82
CTRIA3        20       1      90     146      53
$ ... 230 like lines cut
ENDDATA
