*KEYWORD
*TITLE
LS-DYNA Export from Mesh Class
Created by Mesh::exportToLSDYNA()
$# END OF HEADER
*NODE
$#   nid               x               y               z      tc      rc
       1 0.0000000000000 0.0000000000000 0.0000000000000     0     0
       2 0.0500000007451 0.0000000000000 0.0000000000000     0     0
       3 0.0500000007451 0.0500000007451 0.0000000000000     0     0
       4 0.0000000000000 0.0500000007451 0.0000000000000     0     0
       5 0.0049999998882 0.0000000000000 0.0000000000000     0     0
       6 0.0099999997765 0.0000000000000 0.0000000000000     0     0
       7 0.0149999996647 0.0000000000000 0.0000000000000     0     0
       8 0.0199999995530 0.0000000000000 0.0000000000000     0     0
       9 0.0250000003725 0.0000000000000 0.0000000000000     0     0
      10 0.0299999993294 0.0000000000000 0.0000000000000     0     0
      11 0.0350000001490 0.0000000000000 0.0000000000000     0     0
      12 0.0399999991059 0.0000000000000 0.0000000000000     0     0
      13 0.0450000017881 0.0000000000000 0.0000000000000     0     0
      14 0.0500000007451 0.0049999998882 0.0000000000000     0     0
      15 0.0500000007451 0.0099999997765 0.0000000000000     0     0
      16 0.0500000007451 0.0149999996647 0.0000000000000     0     0
      17 0.0500000007451 0.0199999995530 0.0000000000000     0     0
      18 0.0500000007451 0.0250000003725 0.0000000000000     0     0
      19 0.0500000007451 0.0299999993294 0.0000000000000     0     0
      20 0.0500000007451 0.0350000001490 0.0000000000000     0     0
$ ... 126 like lines cut
$# END OF NODES
*ELEMENT_SHELL
$#   eid     pid      n1      n2      n3      n4      n5      n6      n7      n8
      41       1      73     106     103       0       0       0       0       0
      42       1     103     105      73       0       0       0       0       0
      43       1     102     106      51       0       0       0       0       0
      44       1     106     141      51       0       0       0       0       0
      45       1      48     107      84       0       0       0       0       0
      46       1      90     129      77       0       0       0       0       0
      47       1     103     106     102       0       0       0       0       0
      48       1     107     126      84       0       0       0       0       0
      49       1      77     131      90       0       0       0       0       0
      50       1      88     129      90       0       0       0       0       0
      51       1      84     128      48       0       0       0       0       0
      52       1      56     121      94       0       0       0       0       0
      53       1      54     123      91       0       0       0       0       0
      54       1      57     120      99       0       0       0       0       0
      55       1     121     141      94       0       0       0       0       0
      56       1     130     131      77       0       0       0       0       0
      57       1     122     126      55       0       0       0       0       0
      58       1     105     119      73       0       0       0       0       0
      59       1      84     126      83       0       0       0       0       0
      60       1      91     147      54       0       0       0       0       0
$ ... 230 like lines cut
$# END OF ELEMENTS
*PART
$#     pid       secid       mid     eosid      hgid      grav    adpopt      tmid
       1       1       1       0       0       0       0       0
$# END OF PART
*MAT_ELASTIC
$#     mid        ro         e        pr        da        db         k
       17.850000e+032.100000e+113.000000e-010.000000e+000.000000e+000.000000e+00
$# END OF MATERIAL
*BOUNDARY_SPC_SET
$#      id       cid      dofx      dofy      dofz     dofrx     dofry     dofrz
       1       0       1       1       1       0       0       0
$# END OF BOUNDARY CONDITIONS
*END
