$ WeldFormGUI NASTRAN export
BEGIN BULK
MAT1           1  2.1+11           3.0-1
PSHELL         1       1   1.0+0
GRID           1          -6.5-2 -10.0-3      0.
GRID           2          -4.0-2 -10.0-3      0.
GRID           3          -4.0-2  10.0-3      0.
GRID           4          -6.5-2  10.0-3      0.
GRID           5          -2.5-2 -6.25-3      0.
GRID           6          -2.5-2  6.25-3      0.
GRID           7           2.5-2 -6.25-3      0.
GRID           8           2.5-2  6.25-3      0.
GRID           9           4.0-2 -10.0-3      0.
GRID          10           4.0-2  10.0-3      0.
GRID          11           6.5-2 -10.0-3      0.
GRID          12           6.5-2  10.0-3      0.
GRID          13        -6.222-2 -10.0-3      0.
GRID          14        -5.944-2 -10.0-3      0.
GRID          15        -5.667-2 -10.0-3      0.
GRID          16        -5.389-2 -10.0-3      0.
GRID          17        -5.111-2 -10.0-3      0.
GRID          18        -4.833-2 -10.0-3      0.
GRID          19        -4.556-2 -10.0-3      0.
GRID          20        -4.278-2 -10.0-3      0.
$ ... 364 like lines cut
CBAR           1       1       1      13
CBAR           2       1      13      14
CBAR           3       1      14      15
CBAR           4       1      15      16
CBAR           5       1      16      17
CBAR           6       1      17      18
CBAR           7       1      18      19
CBAR           8       1      19      20
CBAR           9       1      20       2
CBAR          10       1       2      21
CBAR          11       1      21      22
CBAR          12       1      22      23
CBAR          13       1      23      24
CBAR          14       1      24      25
CBAR          15       1      25      26
CBAR          16       1      26       3
CBAR          17       1       4      27
CBAR          18       1      27      28
CBAR          19       1      28      29
CBAR          20       1      29      30
$ ... 116 like lines cut
CQUAD4       137       1       1      13     133      35
CQUAD4       138       1      35     133     134      36
CQUAD4       139       1      36     134     135      37
CQUAD4       140       1      37     135     136      38
CQUAD4       141       1      38     136     137      39
CQUAD4       142       1      39     137     138      40
CQUAD4       143       1      40     138      27       4
CQUAD4       144       1      13      14     139     133
CQUAD4       145       1     133     139     140     134
CQUAD4       146       1     134     140     141     135
CQUAD4       147       1     135     141     142     136
CQUAD4       148       1     136     142     143     137
CQUAD4       149       1     137     143     144     138
CQUAD4       150       1     138     144      28      27
CQUAD4       151       1      14      15     145     139
CQUAD4       152       1     139     145     146     140
CQUAD4       153       1     140     146     147     141
CQUAD4       154       1     141     147     148     142
CQUAD4       155       1     142     148     149     143
CQUAD4       156       1     143     149     150     144
$ ... 309 like lines cut
PBAR           1       1,1.0,0.1,0.01,0.01
ENDDATA
