$ mesh_adapt BDF export
BEGIN BULK
MAT1    1       2.1+11          3-1                             
PSHELL  1       1       1+0                                     
GRID    1               -2.2-2  -3.22-3 0.                      
GRID    2               -1.9-2  -3.203-30.                      
GRID    3               -1.6-2  -3.197-30.                      
GRID    4               -1.3-2  -3.195-30.                      
GRID    5               -1-2    -3.194-30.                      
GRID    6               -7-3    -3.194-30.                      
GRID    7               -4-3    -3.194-30.                      
GRID    8               -1-3    -3.194-30.                      
GRID    9               2-3     -3.194-30.                      
GRID    10              4.9999-3-3.194-30.                      
GRID    11              7.9994-3-3.194-30.                      
GRID    12              1.0996-2-3.194-30.                      
GRID    13              1.3982-2-3.195-30.                      
GRID    14              1.694-2 -3.197-30.                      
GRID    15              1.9835-2-3.203-30.                      
GRID    16              2.2587-2-3.22-3 0.                      
GRID    17              -2.2-2  -1.625-40.                      
GRID    18              -1.9-2  -1.201-40.                      
GRID    19              -1.6-2  -1.053-40.                      
GRID    20              -1.3-2  -1.006-40.                      
$ ... 70 like lines cut
CQUAD4  1       1       1       2       18      17              
CQUAD4  2       1       2       3       19      18              
CQUAD4  3       1       3       4       20      19              
CQUAD4  4       1       4       5       21      20              
CQUAD4  5       1       5       6       22      21              
CQUAD4  6       1       6       7       23      22              
CQUAD4  7       1       7       8       24      23              
CQUAD4  8       1       8       9       25      24              
CQUAD4  9       1       9       10      26      25              
CQUAD4  10      1       10      11      27      26              
CQUAD4  11      1       11      12      28      27              
CQUAD4  12      1       12      13      29      28              
CQUAD4  13      1       13      14      30      29              
CQUAD4  14      1       14      15      31      30              
CQUAD4  15      1       15      16      32      31              
CQUAD4  16      1       17      18      34      33              
CQUAD4  17      1       18      19      35      34              
CQUAD4  18      1       19      20      36      35              
CQUAD4  19      1       20      21      37      36              
CQUAD4  20      1       21      22      38      37              
$ ... 48 like lines cut
ENDDATA
