$ WeldFormGUI NASTRAN export
BEGIN BULK
MAT1           1  2.1+11           3.0-1
GRID           1              0.      0.      0.
GRID           2           4.0-2      0.      0.
GRID           3         4.444-3      0.      0.
GRID           4         8.889-3      0.      0.
GRID           5         1.333-2      0.      0.
GRID           6         1.778-2      0.      0.
GRID           7         2.222-2      0.      0.
GRID           8         2.667-2      0.      0.
GRID           9         3.111-2      0.      0.
GRID          10         3.556-2      0.      0.
CBAR           1       1       1       3
CBAR           2       1       3       4
CBAR           3       1       4       5
CBAR           4       1       5       6
CBAR           5       1       6       7
CBAR           6       1       7       8
CBAR           7       1       8       9
CBAR           8       1       9      10
CBAR           9       1      10       2
PBAR           1       1,1.0,0.1,0.01,0.01
ENDDATA
