$ WeldFormGUI NASTRAN export
BEGIN BULK
MAT1           1  2.1+11           3.0-1
GRID           1        7.756-16-5.901-3      0.
GRID           2         7.228-3-4.006-4      0.
GRID           3         8.228-3 5.994-4      0.
GRID           4         1.543-2 5.994-4      0.
GRID           5         5.131-4-5.883-3      0.
GRID           6         1.024-3 -5.83-3      0.
GRID           7          1.53-3-5.743-3      0.
GRID           8         2.028-3-5.621-3      0.
GRID           9         2.518-3-5.465-3      0.
GRID          10         2.995-3-5.277-3      0.
GRID          11         3.458-3-5.056-3      0.
GRID          12         3.906-3-4.803-3      0.
GRID          13         4.335-3-4.521-3      0.
GRID          14         4.743-3 -4.21-3      0.
GRID          15         5.129-3-3.872-3      0.
GRID          16         5.492-3-3.508-3      0.
GRID          17         5.828-3-3.121-3      0.
GRID          18         6.138-3-2.711-3      0.
GRID          19         6.418-3-2.281-3      0.
GRID          20         6.669-3-1.833-3      0.
$ ... 18 like lines cut
CBAR           1       1       1       5
CBAR           2       1       5       6
CBAR           3       1       6       7
CBAR           4       1       7       8
CBAR           5       1       8       9
CBAR           6       1       9      10
CBAR           7       1      10      11
CBAR           8       1      11      12
CBAR           9       1      12      13
CBAR          10       1      13      14
CBAR          11       1      14      15
CBAR          12       1      15      16
CBAR          13       1      16      17
CBAR          14       1      17      18
CBAR          15       1      18      19
CBAR          16       1      19      20
CBAR          17       1      20      21
CBAR          18       1      21      22
CBAR          19       1      22       2
CBAR          20       1       2      23
$ ... 17 like lines cut
PBAR           1       1,1.0,0.1,0.01,0.01
ENDDATA
