$ WeldFormGUI NASTRAN export
BEGIN BULK
MAT1           1  2.1+11           3.0-1
PSHELL         1       1   1.0+0
GRID           1         6.476-4-4.029-3      0.
GRID           2         1.464-3-4.051-3      0.
GRID           3         2.201-3-4.045-3      0.
GRID           4         7.919-4-3.427-3      0.
GRID           5          1.42-3-3.296-3      0.
GRID           6         2.226-3-3.361-3      0.
GRID           7         2.965-3-3.326-3      0.
GRID           8         3.678-3-3.359-3      0.
GRID           9         7.868-4-2.682-3      0.
GRID          10         1.578-3-2.704-3      0.
GRID          11         2.267-3-2.606-3      0.
GRID          12         2.959-3-2.766-3      0.
GRID          13         3.613-3-2.615-3      0.
GRID          14         4.423-3-2.697-3      0.
GRID          15         7.704-4-1.923-3      0.
GRID          16         1.538-3-1.936-3      0.
GRID          17         2.268-3-1.921-3      0.
GRID          18         3.012-3-1.978-3      0.
GRID          19         3.777-3-1.995-3      0.
GRID          20         4.405-3-1.865-3      0.
$ ... 366 like lines cut
CQUAD4         1       1       1     272     274       4
CQUAD4         2       1     272       2     273     274
CQUAD4         3       1       4     274     273       5
CQUAD4         4       1       2     275     278     273
CQUAD4         5       1     275       3     276     278
CQUAD4         6       1     278     276       6     277
CQUAD4         7       1     273     278     277       5
CQUAD4         8       1       4       5      10       9
CQUAD4         9       1       5     277     280      10
CQUAD4        10       1     277       6     279     280
CQUAD4        11       1      10     280     279      11
CQUAD4        12       1      11     279     282      12
CQUAD4        13       1     279       6     281     282
CQUAD4        14       1      12     282     281       7
CQUAD4        15       1       7     283     285      12
CQUAD4        16       1     283       8     284     285
CQUAD4        17       1      12     285     284      13
CQUAD4        18       1       9      10      16      15
CQUAD4        19       1      10      11      17      16
CQUAD4        20       1      11      12      18      17
$ ... 327 like lines cut
ENDDATA
