$ mesh_adapt BDF export
BEGIN BULK
MAT1    1       2.1+11          3-1                             
PSHELL  1       1       1+0                                     
CQUAD4  1       1       1       272     274     4               
CQUAD4  2       1       272     2       273     274             
CQUAD4  3       1       4       274     273     5               
CQUAD4  4       1       2       275     278     273             
CQUAD4  5       1       275     3       276     278             
CQUAD4  6       1       278     276     6       277             
CQUAD4  7       1       273     278     277     5               
CQUAD4  8       1       4       5       10      9               
CQUAD4  9       1       5       277     280     10              
CQUAD4  10      1       277     6       279     280             
CQUAD4  11      1       10      280     279     11              
CQUAD4  12      1       11      279     282     12              
CQUAD4  13      1       279     6       281     282             
CQUAD4  14      1       12      282     281     7               
CQUAD4  15      1       7       283     285     12              
CQUAD4  16      1       283     8       284     285             
CQUAD4  17      1       12      285     284     13              
CQUAD4  18      1       9       10      16      15              
CQUAD4  19      1       10      11      17      16              
CQUAD4  20      1       11      12      18      17              
$ ... 327 like lines cut
ENDDATA
