$ WeldFormGUI NASTRAN export
BEGIN BULK
MAT1           1  2.1+11           3.0-1
PSHELL         1       1   1.0+0
GRID           1              0.-8.943-3      0.
GRID           2         7.228-3-3.443-3      0.
GRID           3         7.228-3-3.443-3   1.0-1
GRID           4              0.-8.943-3   1.0-1
GRID           5         8.228-3-2.443-3   1.0-1
GRID           6         8.228-3-2.443-3      0.
GRID           7         1.543-2-2.443-3   1.0-1
GRID           8         1.543-2-2.443-3      0.
GRID           9         2.396-3 -8.55-3      0.
GRID          10         4.541-3-7.412-3      0.
GRID          11          6.21-3-5.648-3      0.
GRID          12         7.228-3-3.443-3 2.941-3
GRID          13         7.228-3-3.443-3 5.882-3
GRID          14         7.228-3-3.443-3 8.824-3
GRID          15         7.228-3-3.443-3 1.176-2
GRID          16         7.228-3-3.443-3 1.471-2
GRID          17         7.228-3-3.443-3 1.765-2
GRID          18         7.228-3-3.443-3 2.059-2
GRID          19         7.228-3-3.443-3 2.353-2
GRID          20         7.228-3-3.443-3 2.647-2
$ ... 341 like lines cut
CTRIA3         1       1     221     225      27
CTRIA3         2       1     220     224      59
CTRIA3         3       1      51     181     171
CTRIA3         4       1     197     225     221
CTRIA3         5       1     192     224     220
CTRIA3         6       1      48     163      49
CTRIA3         7       1     163     179      49
CTRIA3         8       1      50     181      51
CTRIA3         9       1     203     238     223
CTRIA3        10       1     179     181      50
CTRIA3        11       1      41     227     219
CTRIA3        12       1     182     218     217
CTRIA3        13       1     222     243     178
CTRIA3        14       1     163     180     179
CTRIA3        15       1      79     182     168
CTRIA3        16       1      79     168      80
CTRIA3        17       1      63     196     156
CTRIA3        18       1      23     191     157
CTRIA3        19       1      49     179      50
CTRIA3        20       1     196     197     156
$ ... 616 like lines cut
ENDDATA
