$ WeldFormGUI NASTRAN export
BEGIN BULK
MAT1           1  2.1+11           3.0-1
PSHELL         1       1   1.0+0
GRID           1         2.306-3 5.184-4      0.
GRID           2         2.654-3 4.333-4      0.
GRID           3         3.131-3  4.48-4      0.
GRID           4         3.558-3 4.486-4      0.
GRID           5         9.666-4 9.321-4      0.
GRID           6         1.356-3 8.116-4      0.
GRID           7         1.794-3 9.213-4      0.
GRID           8         2.203-3 8.527-4      0.
GRID           9         2.681-3 8.894-4      0.
GRID          10         3.128-3 8.939-4      0.
GRID          11         3.552-3   9.0-4      0.
GRID          12         4.416-4 1.377-3      0.
GRID          13         8.574-4 1.291-3      0.
GRID          14         1.344-3 1.325-3      0.
GRID          15         1.792-3 1.341-3      0.
GRID          16         2.242-3 1.344-3      0.
GRID          17          2.69-3 1.342-3      0.
GRID          18         3.136-3  1.35-3      0.
GRID          19          3.55-3  1.35-3      0.
GRID          20         4.444-4 1.802-3      0.
$ ... 310 like lines cut
CQUAD4         1       1       1       2       9       8
CQUAD4         2       1       2       3      10       9
CQUAD4         3       1       3       4      11      10
CQUAD4         4       1       5       6      14      13
CQUAD4         5       1       6       7      15      14
CQUAD4         6       1       7       8      16      15
CQUAD4         7       1       8       9      17      16
CQUAD4         8       1       9      10      18      17
CQUAD4         9       1      10      11      19      18
CQUAD4        10       1      12      13      21      20
CQUAD4        11       1      13      14      22      21
CQUAD4        12       1      14      15      23      22
CQUAD4        13       1      15      16      24      23
CQUAD4        14       1      16      17      25      24
CQUAD4        15       1      17      18      26      25
CQUAD4        16       1      18      19      27      26
CQUAD4        17       1      20      21      29      28
CQUAD4        18       1      21      22      30      29
CQUAD4        19       1      22      23      31      30
CQUAD4        20       1      23      24      32      31
$ ... 267 like lines cut
ENDDATA
