$ mesh_adapt BDF export
BEGIN BULK
MAT1    1       2.1+11          3-1                             
PSHELL  1       1       1+0                                     
GRID    1               2.4496-34.5148-40.                      
GRID    2               2.7594-33.7569-40.                      
GRID    3               3.1869-33.9625-40.                      
GRID    4               3.5759-33.9833-40.                      
GRID    5               1.1466-38.4303-40.                      
GRID    6               1.5631-37.6203-40.                      
GRID    7               1.9888-38.2273-40.                      
GRID    8               2.3567-37.5562-40.                      
GRID    9               2.7841-37.8782-40.                      
GRID    10              3.185-3 7.9371-40.                      
GRID    11              3.5737-38-4     0.                      
GRID    12              3.9167-41.1915-30.                      
GRID    13              7.98-4  1.1448-30.                      
GRID    14              1.2121-31.2108-30.                      
GRID    15              1.6445-31.1874-30.                      
GRID    16              1.9989-31.1932-30.                      
GRID    17              2.3956-31.1935-30.                      
GRID    18              2.7916-31.1924-30.                      
GRID    19              3.1925-31.2-3   0.                      
GRID    20              3.5728-31.2-3   0.                      
$ ... 430 like lines cut
CQUAD4  1       1       1       2       9       8               
CQUAD4  2       1       2       3       10      9               
CQUAD4  3       1       3       4       11      10              
CQUAD4  4       1       15      394     395     6               
CQUAD4  5       1       394     14      369     395             
CQUAD4  6       1       6       395     369     5               
CQUAD4  7       1       6       7       16      15              
CQUAD4  8       1       7       8       17      16              
CQUAD4  9       1       8       9       18      17              
CQUAD4  10      1       9       10      19      18              
CQUAD4  11      1       10      11      20      19              
CQUAD4  12      1       12      371     399     398             
CQUAD4  13      1       371     13      396     399             
CQUAD4  14      1       399     396     22      397             
CQUAD4  15      1       398     399     397     21              
CQUAD4  16      1       13      367     402     396             
CQUAD4  17      1       367     14      400     402             
CQUAD4  18      1       402     400     23      401             
CQUAD4  19      1       396     402     401     22              
CQUAD4  20      1       23      400     403     24              
$ ... 382 like lines cut
ENDDATA
