*KEYWORD
*TITLE
LS-DYNA Export from Mesh Class
Created by Mesh::exportToLSDYNA()
$# END OF HEADER
*NODE
$#   nid               x               y               z      tc      rc
       1 0.0010000000000 0.0010000000000 0.0000000000000     0     0
       2 0.0020000000000 0.0010000000000 0.0000000000000     0     0
       3 0.0030000000000 0.0010000000000 0.0000000000000     0     0
       4 0.0040000000000 0.0010000000000 0.0000000000000     0     0
       5 0.0050000000000 0.0010000000000 0.0000000000000     0     0
       6 0.0060000000000 0.0010000000000 0.0000000000000     0     0
       7 0.0070000000000 0.0010000000000 0.0000000000000     0     0
       8 0.0080000000000 0.0010000000000 0.0000000000000     0     0
       9 0.0090000000000 0.0010000000000 0.0000000000000     0     0
      10 0.0100000000000 0.0010000000000 0.0000000000000     0     0
      11 0.0109810000000 0.0010000000000 0.0000000000000     0     0
      12 0.0119060000000 0.0010000000000 0.0000000000000     0     0
      13 0.0010000000000 0.0020000000000 0.0000000000000     0     0
      14 0.0020000000000 0.0020000000000 0.0000000000000     0     0
      15 0.0030000000000 0.0020000000000 0.0000000000000     0     0
      16 0.0040000000000 0.0020000000000 0.0000000000000     0     0
      17 0.0050000000000 0.0020000000000 0.0000000000000     0     0
      18 0.0060000000000 0.0020000000000 0.0000000000000     0     0
      19 0.0070000000000 0.0020000000000 0.0000000000000     0     0
      20 0.0080000000000 0.0020000000000 0.0000000000000     0     0
$ ... 414 like lines cut
$# END OF NODES
*ELEMENT_SHELL
$#   eid     pid      n1      n2      n3      n4      n5      n6      n7      n8
       1       1       1       2      14      13       0       0       0       0
       2       1       2       3      15      14       0       0       0       0
       3       1       3       4      16      15       0       0       0       0
       4       1       4       5      17      16       0       0       0       0
       5       1       5       6      18      17       0       0       0       0
       6       1       6       7      19      18       0       0       0       0
       7       1       7       8      20      19       0       0       0       0
       8       1       8       9      21      20       0       0       0       0
       9       1       9      10      22      21       0       0       0       0
      10       1      10      11      23      22       0       0       0       0
      11       1      11      12      24      23       0       0       0       0
      12       1      13      14      26      25       0       0       0       0
      13       1      14      15      27      26       0       0       0       0
      14       1      15      16      28      27       0       0       0       0
      15       1      16      17      29      28       0       0       0       0
      16       1      17      18      30      29       0       0       0       0
      17       1      18      19      31      30       0       0       0       0
      18       1      19      20      32      31       0       0       0       0
      19       1      20      21      33      32       0       0       0       0
      20       1      21      22      34      33       0       0       0       0
$ ... 370 like lines cut
$# END OF ELEMENTS
*PART
$#     pid       secid       mid     eosid      hgid      grav    adpopt      tmid
       1       1       1       0       0       0       0       0
$# END OF PART
*MAT_ELASTIC
$#     mid        ro         e        pr        da        db         k
       17.850000e+032.100000e+113.000000e-010.000000e+000.000000e+000.000000e+00
$# END OF MATERIAL
*BOUNDARY_SPC_SET
$#      id       cid      dofx      dofy      dofz     dofrx     dofry     dofrz
       1       0       1       1       1       0       0       0
$# END OF BOUNDARY CONDITIONS
*END
