$ WeldFormGUI NASTRAN export
BEGIN BULK
MAT1           1  2.1+11           3.0-1
GRID           1              0.      0.      0.
GRID           2              0.      0.   2.4-2
GRID           3              0.   1.2-2      0.
GRID           4              0.   1.2-2   2.4-2
GRID           5           1.0-1      0.      0.
GRID           6           1.0-1      0.   2.4-2
GRID           7           1.0-1   1.2-2      0.
GRID           8           1.0-1   1.2-2   2.4-2
GRID           9              0.      0. 1.846-3
GRID          10              0.      0. 3.692-3
GRID          11              0.      0. 5.538-3
GRID          12              0.      0. 7.385-3
GRID          13              0.      0. 9.231-3
GRID          14              0.      0. 1.108-2
GRID          15              0.      0. 1.292-2
GRID          16              0.      0. 1.477-2
GRID          17              0.      0. 1.662-2
GRID          18              0.      0. 1.846-2
GRID          19              0.      0. 2.031-2
GRID          20              0.      0. 2.215-2
$ ... 5804 like lines cut
CHEXA          1       6     281       9       1      21    2225     425
              81    1625
CHEXA          2       6    2225     425      81    1625    2226     437
              82    1626
CHEXA          3       6    2226     437      82    1626    2227     449
              83    1627
CHEXA          4       6    2227     449      83    1627    2228     461
              84    1628
CHEXA          5       6    2228     461      84    1628    2229     473
              85    1629
CHEXA          6       6    2229     473      85    1629    2230     485
              86    1630
CHEXA          7       6    2230     485      86    1630    2231     497
              87    1631
CHEXA          8       6    2231     497      87    1631    2232     509
              88    1632
CHEXA          9       6    2232     509      88    1632    2233     521
              89    1633
CHEXA         10       6    2233     521      89    1633    2234     533
              90    1634
CHEXA         11       6    2234     533      90    1634    2235     545
              91    1635
CHEXA         12       6    2235     545      91    1635    2236     557
              92    1636
CHEXA         13       6    2236     557      92    1636    2237     569
              93    1637
CHEXA         14       6    2237     569      93    1637    2238     581
              94    1638
CHEXA         15       6    2238     581      94    1638    2239     593
              95    1639
CHEXA         16       6    2239     593      95    1639    2240     605
              96    1640
CHEXA         17       6    2240     605      96    1640    2241     617
              97    1641
CHEXA         18       6    2241     617      97    1641    2242     629
              98    1642
CHEXA         19       6    2242     629      98    1642    2243     641
              99    1643
CHEXA         20       6    2243     641      99    1643    2244     653
             100    1644
$ ... 9242 like lines cut
ENDDATA
