$ WeldFormGUI NASTRAN export
BEGIN BULK
MAT1           1  2.1+11           3.0-1
PSHELL         1       1   1.0+0
GRID           1              0.      0.      0.
GRID           2           2.5-3      0.      0.
GRID           3           2.5-3   7.5-3      0.
GRID           4              0.   7.5-3      0.
GRID           5         2.273-4      0.      0.
GRID           6         4.545-4      0.      0.
GRID           7         6.818-4      0.      0.
GRID           8         9.091-4      0.      0.
GRID           9         1.136-3      0.      0.
GRID          10         1.364-3      0.      0.
GRID          11         1.591-3      0.      0.
GRID          12         1.818-3      0.      0.
GRID          13         2.045-3      0.      0.
GRID          14         2.273-3      0.      0.
GRID          15           2.5-3 2.419-4      0.
GRID          16           2.5-3 4.839-4      0.
GRID          17           2.5-3 7.258-4      0.
GRID          18           2.5-3 9.677-4      0.
GRID          19           2.5-3  1.21-3      0.
GRID          20           2.5-3 1.452-3      0.
$ ... 364 like lines cut
CBAR           1       1       1       5
CBAR           2       1       5       6
CBAR           3       1       6       7
CBAR           4       1       7       8
CBAR           5       1       8       9
CBAR           6       1       9      10
CBAR           7       1      10      11
CBAR           8       1      11      12
CBAR           9       1      12      13
CBAR          10       1      13      14
CBAR          11       1      14       2
CBAR          12       1       2      15
CBAR          13       1      15      16
CBAR          14       1      16      17
CBAR          15       1      17      18
CBAR          16       1      18      19
CBAR          17       1      19      20
CBAR          18       1      20      21
CBAR          19       1      21      22
CBAR          20       1      22      23
$ ... 64 like lines cut
CQUAD4        85       1       1       5      85      84
CQUAD4        86       1      84      85      86      83
CQUAD4        87       1      83      86      87      82
CQUAD4        88       1      82      87      88      81
CQUAD4        89       1      81      88      89      80
CQUAD4        90       1      80      89      90      79
CQUAD4        91       1      79      90      91      78
CQUAD4        92       1      78      91      92      77
CQUAD4        93       1      77      92      93      76
CQUAD4        94       1      76      93      94      75
CQUAD4        95       1      75      94      95      74
CQUAD4        96       1      74      95      96      73
CQUAD4        97       1      73      96      97      72
CQUAD4        98       1      72      97      98      71
CQUAD4        99       1      71      98      99      70
CQUAD4       100       1      70      99     100      69
CQUAD4       101       1      69     100     101      68
CQUAD4       102       1      68     101     102      67
CQUAD4       103       1      67     102     103      66
CQUAD4       104       1      66     103     104      65
$ ... 321 like lines cut
PBAR           1       1,1.0,0.1,0.01,0.01
ENDDATA
