*KEYWORD
*TITLE
LS-DYNA Export from Mesh Class
Created by Mesh::exportToLSDYNA()
$# END OF HEADER
*NODE
$#   nid               x               y               z      tc      rc
       1 0.0000000000000 0.0000000000000 0.0000000000000     0     0
       2 0.0024999999441 0.0000000000000 0.0000000000000     0     0
       3 0.0024999999441 0.0074999998324 0.0000000000000     0     0
       4 0.0000000000000 0.0074999998324 0.0000000000000     0     0
       5 0.0001470588177 0.0000000000000 0.0000000000000     0     0
       6 0.0002941176353 0.0000000000000 0.0000000000000     0     0
       7 0.0004411764676 0.0000000000000 0.0000000000000     0     0
       8 0.0005882352707 0.0000000000000 0.0000000000000     0     0
       9 0.0007352941320 0.0000000000000 0.0000000000000     0     0
      10 0.0008823529352 0.0000000000000 0.0000000000000     0     0
      11 0.0010294117965 0.0000000000000 0.0000000000000     0     0
      12 0.0011764705414 0.0000000000000 0.0000000000000     0     0
      13 0.0013235294027 0.0000000000000 0.0000000000000     0     0
      14 0.0014705882641 0.0000000000000 0.0000000000000     0     0
      15 0.0016176470090 0.0000000000000 0.0000000000000     0     0
      16 0.0017647058703 0.0000000000000 0.0000000000000     0     0
      17 0.0019117647316 0.0000000000000 0.0000000000000     0     0
      18 0.0020588235930 0.0000000000000 0.0000000000000     0     0
      19 0.0022058824543 0.0000000000000 0.0000000000000     0     0
      20 0.0023529410828 0.0000000000000 0.0000000000000     0     0
$ ... 916 like lines cut
$# END OF NODES
*ELEMENT_SHELL
$#   eid     pid      n1      n2      n3      n4      n5      n6      n7      n8
     137       1       2       6     138     137       0       0       0       0
     138       1     137     138     139     136       0       0       0       0
     139       1     136     139     140     135       0       0       0       0
     140       1     135     140     141     134       0       0       0       0
     141       1     134     141     142     133       0       0       0       0
     142       1     133     142     143     132       0       0       0       0
     143       1     132     143     144     131       0       0       0       0
     144       1     131     144     145     130       0       0       0       0
     145       1     130     145     146     129       0       0       0       0
     146       1     129     146     147     128       0       0       0       0
     147       1     128     147     148     127       0       0       0       0
     148       1     127     148     149     126       0       0       0       0
     149       1     126     149     150     125       0       0       0       0
     150       1     125     150     151     124       0       0       0       0
     151       1     124     151     152     123       0       0       0       0
     152       1     123     152     153     122       0       0       0       0
     153       1     122     153     154     121       0       0       0       0
     154       1     121     154     155     120       0       0       0       0
     155       1     120     155     156     119       0       0       0       0
     156       1     119     156     157     118       0       0       0       0
$ ... 847 like lines cut
$# END OF ELEMENTS
*PART
$#     pid       secid       mid     eosid      hgid      grav    adpopt      tmid
       1       1       1       0       0       0       0       0
$# END OF PART
*MAT_ELASTIC
$#     mid        ro         e        pr        da        db         k
       17.850000e+032.100000e+113.000000e-010.000000e+000.000000e+000.000000e+00
$# END OF MATERIAL
*BOUNDARY_SPC_SET
$#      id       cid      dofx      dofy      dofz     dofrx     dofry     dofrz
       1       0       1       1       1       0       0       0
$# END OF BOUNDARY CONDITIONS
*END
