*KEYWORD
*TITLE
LS-DYNA Export from Mesh Class
Created by Mesh::exportToLSDYNA()
$# END OF HEADER
*NODE
$#   nid               x               y               z      tc      rc
       1 0.0000000000000 0.0000000000000 0.0000000000000     0     0
       2 0.0040000001900 0.0000000000000 0.0000000000000     0     0
       3 0.0002352941228 0.0000000000000 0.0000000000000     0     0
       4 0.0004705882457 0.0000000000000 0.0000000000000     0     0
       5 0.0007058823248 0.0000000000000 0.0000000000000     0     0
       6 0.0009411764913 0.0000000000000 0.0000000000000     0     0
       7 0.0011764705414 0.0000000000000 0.0000000000000     0     0
       8 0.0014117646497 0.0000000000000 0.0000000000000     0     0
       9 0.0016470588744 0.0000000000000 0.0000000000000     0     0
      10 0.0018823529826 0.0000000000000 0.0000000000000     0     0
      11 0.0021176470909 0.0000000000000 0.0000000000000     0     0
      12 0.0023529410828 0.0000000000000 0.0000000000000     0     0
      13 0.0025882353075 0.0000000000000 0.0000000000000     0     0
      14 0.0028235292993 0.0000000000000 0.0000000000000     0     0
      15 0.0030588235240 0.0000000000000 0.0000000000000     0     0
      16 0.0032941177487 0.0000000000000 0.0000000000000     0     0
      17 0.0035294117406 0.0000000000000 0.0000000000000     0     0
      18 0.0037647059653 0.0000000000000 0.0000000000000     0     0
$# END OF NODES
*ELEMENT_SOLID
$#   eid     pid      n1      n2      n3      n4      n5      n6      n7      n8
$# END OF ELEMENTS
*PART
$#     pid       secid       mid     eosid      hgid      grav    adpopt      tmid
       1       1       1       0       0       0       0       0
$# END OF PART
*MAT_ELASTIC
$#     mid        ro         e        pr        da        db         k
       17.850000e+032.100000e+113.000000e-010.000000e+000.000000e+000.000000e+00
$# END OF MATERIAL
*BOUNDARY_SPC_SET
$#      id       cid      dofx      dofy      dofz     dofrx     dofry     dofrz
       1       0       1       1       1       0       0       0
$# END OF BOUNDARY CONDITIONS
*END
