$ WeldFormGUI NASTRAN export
BEGIN BULK
MAT1           1  2.1+11           3.0-1
PSHELL         1       1   1.0+0
GRID           1              0.      0.      0.
GRID           2           2.5-3      0.      0.
GRID           3           2.5-3   7.5-3      0.
GRID           4              0.   7.5-3      0.
GRID           5         1.471-4      0.      0.
GRID           6         2.941-4      0.      0.
GRID           7         4.412-4      0.      0.
GRID           8         5.882-4      0.      0.
GRID           9         7.353-4      0.      0.
GRID          10         8.824-4      0.      0.
GRID          11         1.029-3      0.      0.
GRID          12         1.176-3      0.      0.
GRID          13         1.324-3      0.      0.
GRID          14         1.471-3      0.      0.
GRID          15         1.618-3      0.      0.
GRID          16         1.765-3      0.      0.
GRID          17         1.912-3      0.      0.
GRID          18         2.059-3      0.      0.
GRID          19         2.206-3      0.      0.
GRID          20         2.353-3      0.      0.
$ ... 916 like lines cut
CBAR           1       1       1       5
CBAR           2       1       5       6
CBAR           3       1       6       7
CBAR           4       1       7       8
CBAR           5       1       8       9
CBAR           6       1       9      10
CBAR           7       1      10      11
CBAR           8       1      11      12
CBAR           9       1      12      13
CBAR          10       1      13      14
CBAR          11       1      14      15
CBAR          12       1      15      16
CBAR          13       1      16      17
CBAR          14       1      17      18
CBAR          15       1      18      19
CBAR          16       1      19      20
CBAR          17       1      20       2
CBAR          18       1       2      21
CBAR          19       1      21      22
CBAR          20       1      22      23
$ ... 116 like lines cut
CQUAD4       137       1       1       5     137     136
CQUAD4       138       1     136     137     138     135
CQUAD4       139       1     135     138     139     134
CQUAD4       140       1     134     139     140     133
CQUAD4       141       1     133     140     141     132
CQUAD4       142       1     132     141     142     131
CQUAD4       143       1     131     142     143     130
CQUAD4       144       1     130     143     144     129
CQUAD4       145       1     129     144     145     128
CQUAD4       146       1     128     145     146     127
CQUAD4       147       1     127     146     147     126
CQUAD4       148       1     126     147     148     125
CQUAD4       149       1     125     148     149     124
CQUAD4       150       1     124     149     150     123
CQUAD4       151       1     123     150     151     122
CQUAD4       152       1     122     151     152     121
CQUAD4       153       1     121     152     153     120
CQUAD4       154       1     120     153     154     119
CQUAD4       155       1     119     154     155     118
CQUAD4       156       1     118     155     156     117
$ ... 847 like lines cut
PBAR           1       1,1.0,0.1,0.01,0.01
ENDDATA
