$ mesh_adapt BDF export
BEGIN BULK
MAT1    1       2.1+11          3-1                             
PSHELL  1       1       1+0                                     
GRID    1               2-4     2-4     0.                      
GRID    2               4-4     2-4     0.                      
GRID    3               6-4     2-4     0.                      
GRID    4               8-4     2-4     0.                      
GRID    5               1-3     2-4     0.                      
GRID    6               1.2-3   2-4     0.                      
GRID    7               1.4-3   2-4     0.                      
GRID    8               1.6-3   2-4     0.                      
GRID    9               1.8-3   2-4     0.                      
GRID    10              1.9984-32-4     0.                      
GRID    11              2.1906-32-4     0.                      
GRID    12              2.3641-32-4     0.                      
GRID    13              2-4     4-4     0.                      
GRID    14              4-4     4-4     0.                      
GRID    15              6-4     4-4     0.                      
GRID    16              8-4     4-4     0.                      
GRID    17              1-3     4-4     0.                      
GRID    18              1.2-3   4-4     0.                      
GRID    19              1.4-3   4-4     0.                      
GRID    20              1.6-3   4-4     0.                      
$ ... 523 like lines cut
CQUAD4  1       1       1       2       14      13              
CQUAD4  2       1       2       3       15      14              
CQUAD4  3       1       3       4       16      15              
CQUAD4  4       1       4       5       17      16              
CQUAD4  5       1       5       6       18      17              
CQUAD4  6       1       6       7       19      18              
CQUAD4  7       1       7       8       20      19              
CQUAD4  8       1       8       9       21      20              
CQUAD4  9       1       9       10      22      21              
CQUAD4  10      1       10      11      23      22              
CQUAD4  11      1       11      12      24      23              
CQUAD4  12      1       13      14      26      25              
CQUAD4  13      1       14      15      27      26              
CQUAD4  14      1       15      16      28      27              
CQUAD4  15      1       16      17      29      28              
CQUAD4  16      1       17      18      30      29              
CQUAD4  17      1       18      19      31      30              
CQUAD4  18      1       19      20      32      31              
CQUAD4  19      1       20      21      33      32              
CQUAD4  20      1       21      22      34      33              
$ ... 470 like lines cut
ENDDATA
