$ WeldFormGUI NASTRAN export
BEGIN BULK
MAT1           1  2.1+11           3.0-1
PSHELL         1       1   1.0+0
GRID           1         1.557-2      0.      0.
GRID           2        1.729-18      0.-1.557-2
GRID           3              0.      0.      0.
GRID           4         1.557-2      0.      0.
GRID           5        1.729-18      0.-1.557-2
GRID           6        1.951-18   2.0-3-1.757-2
GRID           7         1.757-2   2.0-3      0.
GRID           8         1.757-2   2.0-3      0.
GRID           9        1.951-18   2.0-3-1.757-2
GRID          10        2.082-18  2.88-2-1.875-2
GRID          11         1.875-2  2.88-2      0.
GRID          12         1.875-2  2.88-2      0.
GRID          13         2.375-2  3.38-2      0.
GRID          14        2.637-18  3.38-2-2.375-2
GRID          15        2.082-18  2.88-2-1.875-2
GRID          16         2.375-2  3.38-2      0.
GRID          17        2.637-18  3.38-2-2.375-2
GRID          18        3.796-18  3.38-2-3.419-2
GRID          19         3.419-2  3.38-2      0.
GRID          20         3.419-2  3.38-2      0.
$ ... 710 like lines cut
CBAR           1       1       1      52
CBAR           2       1      52      53
CBAR           3       1      53      54
CBAR           4       1      54      55
CBAR           5       1      55       2
CBAR           6       1       3      56
CBAR           7       1      56      57
CBAR           8       1      57      58
CBAR           9       1      58       1
CBAR          10       1       3      59
CBAR          11       1      59      60
CBAR          12       1      60      61
CBAR          13       1      61       2
CBAR          14       1       4      62
CBAR          15       1      62      63
CBAR          16       1      63      64
CBAR          17       1      64      65
CBAR          18       1      65       5
CBAR          19       1       5      66
CBAR          20       1      66       6
$ ... 394 like lines cut
CTRIA3       415       1      58       1      52
CTRIA3       416       1      55       2      61
CTRIA3       417       1      61     416      55
CTRIA3       418       1      52     417      58
CTRIA3       419       1      54     418      53
CTRIA3       420       1      54     421     418
CTRIA3       421       1      53     418     417
CTRIA3       422       1      58     417      57
CTRIA3       423       1      57     417     415
CTRIA3       424       1      53     417      52
CTRIA3       425       1     416     419     418
CTRIA3       426       1     417     418     415
CTRIA3       427       1     418     419     415
CTRIA3       428       1     416     421      55
CTRIA3       429       1      57     415      56
CTRIA3       430       1      60     416      61
CTRIA3       431       1      59     419      60
CTRIA3       432       1      56     420       3
CTRIA3       433       1       3     420      59
CTRIA3       434       1      60     419     416
$ ... 1000 like lines cut
PBAR           1       1,1.0,0.1,0.01,0.01
ENDDATA
