$ WeldFormGUI NASTRAN export
BEGIN BULK
MAT1           1  2.1+11           3.0-1
PSHELL         1       1   1.0+0
GRID           1         1.557-2      0.      0.
GRID           2        1.729-18      0. 1.557-2
GRID           3              0.      0.      0.
GRID           4        1.951-18   2.0-3 1.757-2
GRID           5         1.757-2   2.0-3      0.
GRID           6         1.875-2  2.88-2      0.
GRID           7        2.082-18  2.88-2 1.875-2
GRID           8        2.637-18  3.38-2 2.375-2
GRID           9         2.375-2  3.38-2      0.
GRID          10        3.796-18  3.38-2 3.419-2
GRID          11         3.419-2  3.38-2      0.
GRID          12        4.018-18  3.58-2 3.619-2
GRID          13         3.619-2  3.58-2      0.
GRID          14         3.659-2  4.14-2      0.
GRID          15        4.063-18  4.14-2 3.659-2
GRID          16        4.285-18  4.34-2 3.859-2
GRID          17         3.859-2  4.34-2      0.
GRID          18        6.773-18  4.34-2   6.1-2
GRID          19           6.1-2  4.34-2      0.
GRID          20        6.995-18  4.54-2   6.3-2
$ ... 545 like lines cut
CBAR           1       1       1      28
CBAR           2       1      28      29
CBAR           3       1      29      30
CBAR           4       1      30      31
CBAR           5       1      31       2
CBAR           6       1       3      32
CBAR           7       1      32      33
CBAR           8       1      33      34
CBAR           9       1      34       1
CBAR          10       1       3      35
CBAR          11       1      35      36
CBAR          12       1      36      37
CBAR          13       1      37       2
CBAR          14       1       2      38
CBAR          15       1      38       4
CBAR          16       1       5      39
CBAR          17       1      39      40
CBAR          18       1      40      41
CBAR          19       1      41      42
CBAR          20       1      42      43
$ ... 240 like lines cut
CTRIA3       261       1       1      28      34
CTRIA3       262       1      31       2      37
CTRIA3       263       1      37     250      31
CTRIA3       264       1      28     251      34
CTRIA3       265       1      30     252      29
CTRIA3       266       1      30     255     252
CTRIA3       267       1      29     252     251
CTRIA3       268       1      34     251      33
CTRIA3       269       1      33     251     249
CTRIA3       270       1      29     251      28
CTRIA3       271       1     250     253     252
CTRIA3       272       1     251     252     249
CTRIA3       273       1     252     253     249
CTRIA3       274       1     250     255      31
CTRIA3       275       1      33     249      32
CTRIA3       276       1      36     250      37
CTRIA3       277       1      35     253      36
CTRIA3       278       1      32     254       3
CTRIA3       279       1       3     254      35
CTRIA3       280       1      36     253     250
$ ... 1002 like lines cut
PBAR           1       1,1.0,0.1,0.01,0.01
ENDDATA
