$ WeldFormGUI NASTRAN export
BEGIN BULK
MAT1           1  2.1+11           3.0-1
PSHELL         1       1   1.0+0
GRID           1              0. 1.519-1      0.
GRID           2           1.0-1 1.519-1      0.
GRID           3           1.0-1 1.519-1   1.0-1
GRID           4              0. 1.519-1   1.0-1
GRID           5           5.0-3 1.519-1      0.
GRID           6          10.0-3 1.519-1      0.
GRID           7           1.5-2 1.519-1      0.
GRID           8           2.0-2 1.519-1      0.
GRID           9           2.5-2 1.519-1      0.
GRID          10           3.0-2 1.519-1      0.
GRID          11           3.5-2 1.519-1      0.
GRID          12           4.0-2 1.519-1      0.
GRID          13           4.5-2 1.519-1      0.
GRID          14           5.0-2 1.519-1      0.
GRID          15           5.5-2 1.519-1      0.
GRID          16           6.0-2 1.519-1      0.
GRID          17           6.5-2 1.519-1      0.
GRID          18           7.0-2 1.519-1      0.
GRID          19           7.5-2 1.519-1      0.
GRID          20           8.0-2 1.519-1      0.
$ ... 494 like lines cut
CBAR           1       1       1       5
CBAR           2       1       5       6
CBAR           3       1       6       7
CBAR           4       1       7       8
CBAR           5       1       8       9
CBAR           6       1       9      10
CBAR           7       1      10      11
CBAR           8       1      11      12
CBAR           9       1      12      13
CBAR          10       1      13      14
CBAR          11       1      14      15
CBAR          12       1      15      16
CBAR          13       1      16      17
CBAR          14       1      17      18
CBAR          15       1      18      19
CBAR          16       1      19      20
CBAR          17       1      20      21
CBAR          18       1      21      22
CBAR          19       1      22      23
CBAR          20       1      23       2
$ ... 60 like lines cut
CTRIA3        81       1     339     341      89
CTRIA3        82       1     461     493     293
CTRIA3        83       1     365     475      87
CTRIA3        84       1      84     493     461
CTRIA3        85       1     295     465     288
CTRIA3        86       1     288     465     464
CTRIA3        87       1     459     466     372
CTRIA3        88       1     466     469     372
CTRIA3        89       1     296     470     287
CTRIA3        90       1     470     471     287
CTRIA3        91       1     341     486      89
CTRIA3        92       1      90     467     288
CTRIA3        93       1     288     464      90
CTRIA3        94       1     100     472     287
CTRIA3        95       1     287     471     100
CTRIA3        96       1     395     462     381
CTRIA3        97       1     381     463     395
CTRIA3        98       1     100     473     289
CTRIA3        99       1     289     472     100
CTRIA3       100       1     392     429     340
$ ... 926 like lines cut
PBAR           1       1,1.0,0.1,0.01,0.01
ENDDATA
