*KEYWORD
*TITLE
LS-DYNA Export from Mesh Class
Created by Mesh::exportToLSDYNA()
$# END OF HEADER
*NODE
$#   nid               x               y               z      tc      rc
       1 0.0289999991655 0.0338155850768 0.0000000000000     0     0
       2 0.0000000000000 0.0338155850768 0.0289999991655     0     0
       3 0.0289999991655 0.1518155783415 0.0000000000000     0     0
       4 0.0000000000000 0.1518155783415 0.0289999991655     0     0
       5 0.0000000000000 0.0338155850768 0.0000000000000     0     0
       6 0.0000000000000 0.1518155783415 0.0000000000000     0     0
       7 0.0286429617554 0.0338155850768 0.0045365993865     0     0
       8 0.0275806393474 0.0338155850768 0.0089614931494     0     0
       9 0.0258391890675 0.0338155850768 0.0131657244638     0     0
      10 0.0234614927322 0.0338155850768 0.0170457717031     0     0
      11 0.0205060970038 0.0338155850768 0.0205060970038     0     0
      12 0.0170457717031 0.0338155850768 0.0234614927322     0     0
      13 0.0131657244638 0.0338155850768 0.0258391890675     0     0
      14 0.0089614931494 0.0338155850768 0.0275806393474     0     0
      15 0.0045365993865 0.0338155850768 0.0286429617554     0     0
      16 0.0289999991655 0.1468989104033 0.0000000000000     0     0
      17 0.0289999991655 0.1419822573662 0.0000000000000     0     0
      18 0.0289999991655 0.1370655894279 0.0000000000000     0     0
      19 0.0289999991655 0.1321489214897 0.0000000000000     0     0
      20 0.0289999991655 0.1272322535515 0.0000000000000     0     0
$ ... 899 like lines cut
$# END OF NODES
*ELEMENT_SOLID
$#   eid     pid      n1      n2      n3      n4      n5      n6      n7      n8
       1       1     635     714     748     860       0       0       0       0
       2       1     781     786     707     880       0       0       0       0
       3       1     317     787     719     804       0       0       0       0
       4       1     715     344     780     808       0       0       0       0
       5       1     592     757     716     812       0       0       0       0
       6       1     552     696     739     903       0       0       0       0
       7       1     707     786     749     880       0       0       0       0
       8       1     463     517     461     897       0       0       0       0
       9       1     317     753     787     804       0       0       0       0
      10       1     531     810     556     863       0       0       0       0
      11       1     464     736     772     795       0       0       0       0
      12       1     635     748     714     877       0       0       0       0
      13       1     573     662     663     733       0       0       0       0
      14       1     531     556     453     863       0       0       0       0
      15       1     411     739     696     903       0       0       0       0
      16       1     463     724     517     897       0       0       0       0
      17       1     573     663     423     733       0       0       0       0
      18       1     348     745     364     771       0       0       0       0
      19       1     517     724     463     802       0       0       0       0
      20       1     317     250     719     787       0       0       0       0
$ ... 3272 like lines cut
$# END OF ELEMENTS
*PART
$#     pid       secid       mid     eosid      hgid      grav    adpopt      tmid
       1       1       1       0       0       0       0       0
$# END OF PART
*MAT_ELASTIC
$#     mid        ro         e        pr        da        db         k
       17.850000e+032.100000e+113.000000e-010.000000e+000.000000e+000.000000e+00
$# END OF MATERIAL
*BOUNDARY_SPC_SET
$#      id       cid      dofx      dofy      dofz     dofrx     dofry     dofrz
       1       0       1       1       1       0       0       0
$# END OF BOUNDARY CONDITIONS
*END
