*KEYWORD
*TITLE
LS-DYNA Export from Mesh Class
Created by Mesh::exportToLSDYNA()
$# END OF HEADER
*NODE
$#   nid               x               y               z      tc      rc
       1 0.0126999998465-0.0000000000000 0.0299999993294     0     0
       2 0.0126999998465-0.0000000000000 0.0000000000000     0     0
       3 0.0125436419621 0.0019867178053 0.0299999993294     0     0
       4 0.0120784174651 0.0039245160297 0.0299999993294     0     0
       5 0.0113157825544 0.0057656792924 0.0299999993294     0     0
       6 0.0102745154873 0.0074648726732 0.0299999993294     0     0
       7 0.0089802565053 0.0089802565053 0.0299999993294     0     0
       8 0.0074648726732 0.0102745154873 0.0299999993294     0     0
       9 0.0057656792924 0.0113157825544 0.0299999993294     0     0
      10 0.0039245160297 0.0120784174651 0.0299999993294     0     0
      11 0.0019867178053 0.0125436419621 0.0299999993294     0     0
      12-0.0000000000000 0.0126999998465 0.0299999993294     0     0
      13-0.0019867178053 0.0125436419621 0.0299999993294     0     0
      14-0.0039245160297 0.0120784174651 0.0299999993294     0     0
      15-0.0057656792924 0.0113157825544 0.0299999993294     0     0
      16-0.0074648726732 0.0102745154873 0.0299999993294     0     0
      17-0.0089802565053 0.0089802565053 0.0299999993294     0     0
      18-0.0102745154873 0.0074648726732 0.0299999993294     0     0
      19-0.0113157825544 0.0057656792924 0.0299999993294     0     0
      20-0.0120784174651 0.0039245160297 0.0299999993294     0     0
$ ... 1944 like lines cut
$# END OF NODES
*ELEMENT_SOLID
$#   eid     pid      n1      n2      n3      n4      n5      n6      n7      n8
       1       1     567    1689    1526    1706       0       0       0       0
       2       1    1037    1167    1333    1555       0       0       0       0
       3       1    1044    1206    1160    1272       0       0       0       0
       4       1    1074    1213    1146    1505       0       0       0       0
       5       1     308     307    1576    1714       0       0       0       0
       6       1    1073    1120    1430    1440       0       0       0       0
       7       1    1060    1184    1159    1388       0       0       0       0
       8       1     711    1420     989    1490       0       0       0       0
       9       1    1106    1497     410    1512       0       0       0       0
      10       1     208    1128    1386    1594       0       0       0       0
      11       1     829    1265    1200    1564       0       0       0       0
      12       1     387    1361    1324    1842       0       0       0       0
      13       1     407    1512     410    1765       0       0       0       0
      14       1    1046    1270    1113    1322       0       0       0       0
      15       1     410    1390    1106    1512       0       0       0       0
      16       1    1062    1148    1225    1258       0       0       0       0
      17       1     407     410    1497    1765       0       0       0       0
      18       1     208    1336    1128    1594       0       0       0       0
      19       1    1132    1574    1748    1819       0       0       0       0
      20       1     999     114    1395    1661       0       0       0       0
$ ... 8808 like lines cut
$# END OF ELEMENTS
*PART
$#     pid       secid       mid     eosid      hgid      grav    adpopt      tmid
       1       1       1       0       0       0       0       0
$# END OF PART
*MAT_ELASTIC
$#     mid        ro         e        pr        da        db         k
       17.850000e+032.100000e+113.000000e-010.000000e+000.000000e+000.000000e+00
$# END OF MATERIAL
*BOUNDARY_SPC_SET
$#      id       cid      dofx      dofy      dofz     dofrx     dofry     dofrz
       1       0       1       1       1       0       0       0
$# END OF BOUNDARY CONDITIONS
*END
