$ WeldFormGUI NASTRAN export
BEGIN BULK
MAT1           1  2.1+11           3.0-1
GRID           1          1.27-2-3.11-18   3.0-2
GRID           2          1.27-2-3.11-18      0.
GRID           3         1.227-2 3.287-3   3.0-2
GRID           4           1.1-2  6.35-3   3.0-2
GRID           5          8.98-3  8.98-3   3.0-2
GRID           6          6.35-3   1.1-2   3.0-2
GRID           7         3.287-3 1.227-2   3.0-2
GRID           8        -4.86-18  1.27-2   3.0-2
GRID           9        -3.287-3 1.227-2   3.0-2
GRID          10         -6.35-3   1.1-2   3.0-2
GRID          11         -8.98-3  8.98-3   3.0-2
GRID          12          -1.1-2  6.35-3   3.0-2
GRID          13        -1.227-2 3.287-3   3.0-2
GRID          14         -1.27-21.555-18   3.0-2
GRID          15        -1.227-2-3.287-3   3.0-2
GRID          16          -1.1-2 -6.35-3   3.0-2
GRID          17         -8.98-3 -8.98-3   3.0-2
GRID          18         -6.35-3  -1.1-2   3.0-2
GRID          19        -3.287-3-1.227-2   3.0-2
GRID          20        2.023-17 -1.27-2   3.0-2
$ ... 735 like lines cut
CTETRA         1       5     504     569     549     673
CTETRA         2       5     553     556     257     694
CTETRA         3       5     197     582     556     714
CTETRA         4       5     549     673     569     734
CTETRA         5       5     515     586     555     591
CTETRA         6       5     256     216     576     751
CTETRA         7       5     514     597     563     653
CTETRA         8       5     504     549     585     603
CTETRA         9       5     551     652     599     691
CTETRA        10       5     556     582     197     647
CTETRA        11       5     549     603     504     673
CTETRA        12       5     257     556     553     640
CTETRA        13       5     197     534     582     714
CTETRA        14       5     149     592     526     712
CTETRA        15       5     427     580     534     606
CTETRA        16       5     526     592     149     698
CTETRA        17       5     599     652     551     686
CTETRA        18       5     505     536     564     686
CTETRA        19       5     526     149     662     698
CTETRA        20       5     512     555     526     569
$ ... 2931 like lines cut
ENDDATA
