$ WeldFormGUI NASTRAN export
BEGIN BULK
MAT1           1  2.1+11           3.0-1
PSHELL         1       1   1.0+0
GRID           1              0.   3.0-2      0.
GRID           2           4.0-2   3.0-2      0.
GRID           3         1.905-3   3.0-2      0.
GRID           4          3.81-3   3.0-2      0.
GRID           5         5.714-3   3.0-2      0.
GRID           6         7.619-3   3.0-2      0.
GRID           7         9.524-3   3.0-2      0.
GRID           8         1.143-2   3.0-2      0.
GRID           9         1.333-2   3.0-2      0.
GRID          10         1.524-2   3.0-2      0.
GRID          11         1.714-2   3.0-2      0.
GRID          12         1.905-2   3.0-2      0.
GRID          13         2.095-2   3.0-2      0.
GRID          14         2.286-2   3.0-2      0.
GRID          15         2.476-2   3.0-2      0.
GRID          16         2.667-2   3.0-2      0.
GRID          17         2.857-2   3.0-2      0.
GRID          18         3.048-2   3.0-2      0.
GRID          19         3.238-2   3.0-2      0.
GRID          20         3.429-2   3.0-2      0.
GRID          21         3.619-2   3.0-2      0.
GRID          22          3.81-2   3.0-2      0.
CBAR           1       1       1       3
CBAR           2       1       3       4
CBAR           3       1       4       5
CBAR           4       1       5       6
CBAR           5       1       6       7
CBAR           6       1       7       8
CBAR           7       1       8       9
CBAR           8       1       9      10
CBAR           9       1      10      11
CBAR          10       1      11      12
CBAR          11       1      12      13
CBAR          12       1      13      14
CBAR          13       1      14      15
CBAR          14       1      15      16
CBAR          15       1      16      17
CBAR          16       1      17      18
CBAR          17       1      18      19
CBAR          18       1      19      20
CBAR          19       1      20      21
CBAR          20       1      21      22
CBAR          21       1      22       2
PBAR           1       1,1.0,0.1,0.01,0.01
ENDDATA
