$ WeldFormGUI NASTRAN export
BEGIN BULK
MAT1           1  2.1+11           3.0-1
PSHELL         1       1   1.0+0
GRID           1              0. 4.128-4      0.
GRID           2         1.557-2 4.128-4      0.
GRID           3         1.557-2 2.413-3      0.
GRID           4         1.757-2 2.413-3      0.
GRID           5         1.875-2 2.921-2      0.
GRID           6         2.375-2 2.921-2      0.
GRID           7         2.375-2 3.421-2      0.
GRID           8         3.419-2 3.421-2      0.
GRID           9         3.419-2 3.621-2      0.
GRID          10         3.619-2 3.621-2      0.
GRID          11         3.659-2 4.181-2      0.
GRID          12         3.859-2 4.181-2      0.
GRID          13         3.859-2 4.381-2      0.
GRID          14           6.1-2 4.381-2      0.
GRID          15           6.1-2 4.581-2      0.
GRID          16           6.3-2 4.581-2      0.
GRID          17         6.352-2 5.161-2      0.
GRID          18         6.552-2 5.161-2      0.
GRID          19         6.552-2 5.361-2      0.
GRID          20          8.79-2 5.361-2      0.
$ ... 127 like lines cut
CBAR           1       1       1      21
CBAR           2       1      21      22
CBAR           3       1      22      23
CBAR           4       1      23      24
CBAR           5       1      24      25
CBAR           6       1      25      26
CBAR           7       1      26      27
CBAR           8       1      27      28
CBAR           9       1      28      29
CBAR          10       1      29      30
CBAR          11       1      30      31
CBAR          12       1      31      32
CBAR          13       1      32      33
CBAR          14       1      33      34
CBAR          15       1      34      35
CBAR          16       1      35       2
CBAR          17       1       2      36
CBAR          18       1      36      37
CBAR          19       1      37      38
CBAR          20       1      38       4
$ ... 120 like lines cut
PBAR           1       1,1.0,0.1,0.01,0.01
ENDDATA
