$ WeldFormGUI NASTRAN export
BEGIN BULK
MAT1           1  2.1+11           3.0-1
GRID           1              0. 1.523-1      0.
GRID           2           6.0-3 1.523-1      0.
GRID           3          1.21-2 1.526-1      0.
GRID           4          1.21-2 1.626-1      0.
GRID           5          2.21-2 1.626-1      0.
GRID           6         2.236-2 1.698-1      0.
GRID           7         2.436-2 1.698-1      0.
GRID           8         2.436-2 1.718-1      0.
GRID           9         2.813-2 1.718-1      0.
GRID          10         2.813-2 1.698-1      0.
GRID          11         3.013-2 1.698-1      0.
GRID          12         3.039-2 1.626-1      0.
GRID          13         4.039-2 1.626-1      0.
GRID          14         4.039-2 1.526-1      0.
GRID          15         6.146-2 1.526-1      0.
GRID          16         6.146-2 1.516-1      0.
GRID          17         6.246-2 1.516-1      0.
GRID          18         6.346-2 1.516-1      0.
GRID          19         6.346-2 1.506-1      0.
GRID          20         9.346-2 1.506-1      0.
$ ... 116 like lines cut
CBAR           1       1       1      21
CBAR           2       1      21      22
CBAR           3       1      22      23
CBAR           4       1      23      24
CBAR           5       1      24      25
CBAR           6       1      25       2
CBAR           7       1       2      26
CBAR           8       1      26      27
CBAR           9       1      27      28
CBAR          10       1      28      29
CBAR          11       1      29      30
CBAR          12       1      30      31
CBAR          13       1      31       3
CBAR          14       1       3      32
CBAR          15       1      32      33
CBAR          16       1      33      34
CBAR          17       1      34      35
CBAR          18       1      35      36
CBAR          19       1      36      37
CBAR          20       1      37      38
$ ... 109 like lines cut
PBAR           1       1,1.0,0.1,0.01,0.01
ENDDATA
